
     RDKit          3D

 73 73  0  0  0  0  0  0  0  0999 V2000
   19.9260  131.9130    2.4460 C   0  0  0  0  0  0  0  0  0  0  0  0
   18.9710  133.3520    3.0440 S   0  0  0  0  0  0  0  0  0  0  0  0
   20.1410  133.0100    0.2620 C   0  0  0  0  0  0  0  0  0  0  0  0
   21.8670  133.3060    1.9500 N   0  0  0  0  0  0  0  0  0  0  0  0
   20.9150  132.3250    1.3690 C   0  0  1  0  0  0  0  0  0  0  0  0
   20.7760  133.0450   -0.9890 N   0  0  0  0  0  0  0  0  0  0  0  0
   20.0110  133.7290   -2.0020 C   0  0  1  0  0  0  0  0  0  0  0  0
   21.0760  134.4560   -2.9250 C   0  0  1  0  0  0  0  0  0  0  0  0
   22.1060  133.4930   -3.4920 C   0  0  0  0  0  0  0  0  0  0  0  0
   20.3840  135.2130   -4.0690 C   0  0  0  0  0  0  0  0  0  0  0  0
   21.3420  135.9250   -5.0000 C   0  0  0  0  0  0  0  0  0  0  0  0
   19.1360  132.6900   -2.7320 C   0  0  0  0  0  0  0  0  0  0  0  0
   18.2700  133.2580   -3.7960 O   0  0  0  0  0  0  0  0  0  0  0  0
   17.4930  132.2240   -4.4230 C   0  0  0  0  0  0  0  0  0  0  0  0
   16.1900  132.0400   -3.6070 C   0  0  0  0  0  0  0  0  0  0  0  0
   15.3270  133.2650   -3.7320 C   0  0  0  0  0  0  0  0  0  0  0  0
   14.2280  133.2540   -4.5830 C   0  0  0  0  0  0  0  0  0  0  0  0
   15.6260  134.4180   -3.0310 C   0  0  0  0  0  0  0  0  0  0  0  0
   13.4160  134.3840   -4.7330 C   0  0  0  0  0  0  0  0  0  0  0  0
   14.8270  135.5700   -3.1820 C   0  0  0  0  0  0  0  0  0  0  0  0
   13.7070  135.5490   -4.0450 C   0  0  0  0  0  0  0  0  0  0  0  0
   17.1210  132.7260   -5.8270 C   0  0  0  0  0  0  0  0  0  0  0  0
   16.4810  132.0170   -6.5870 O   0  0  0  0  0  0  0  0  0  0  0  0
   17.4470  133.9730   -6.1390 N   0  0  0  0  0  0  0  0  0  0  0  0
   17.0700  134.5200   -7.4470 C   0  0  0  0  0  0  0  0  0  0  0  0
   15.5900  134.9550   -7.4560 C   0  0  0  0  0  0  0  0  0  0  0  0
   15.2010  135.5090   -8.7990 C   0  0  0  0  0  0  0  0  0  0  0  0
   13.5960  136.0640   -8.9060 S   0  0  0  0  0  6  0  0  0  0  0  0
   13.2980  137.0250   -7.7460 O   0  0  0  0  0  0  0  0  0  0  0  0
   12.5090  134.8130   -9.0350 O   0  0  0  0  0  0  0  0  0  0  0  0
   13.5850  137.0950  -10.2940 C   0  0  0  0  0  0  0  0  0  0  0  0
   17.9420  135.7390   -7.7340 C   0  0  0  0  0  0  0  0  0  0  0  0
   18.2060  136.0420   -8.9280 O   0  0  0  0  0  0  0  0  0  0  0  0
   18.3600  136.3740   -6.7440 O   0  0  0  0  0  0  0  0  0  0  0  0
   20.4764  131.4709    3.2896 H   0  0  0  0  0  0  0  0  0  0  0  0
   19.2254  131.1815    2.0169 H   0  0  0  0  0  0  0  0  0  0  0  0
   18.9661  133.3594    4.4140 H   0  0  0  0  0  0  0  0  0  0  0  0
   19.1838  132.4817    0.1411 H   0  0  0  0  0  0  0  0  0  0  0  0
   20.0331  134.0591    0.5745 H   0  0  0  0  0  0  0  0  0  0  0  0
   21.8225  133.2602    2.9780 H   0  0  0  0  0  0  0  0  0  0  0  0
   22.8228  133.0834    1.6374 H   0  0  0  0  0  0  0  0  0  0  0  0
   21.4576  131.4488    0.9846 H   0  0  0  0  0  0  0  0  0  0  0  0
   21.6803  133.5264   -0.8825 H   0  0  0  0  0  0  0  0  0  0  0  0
   19.3139  134.4865   -1.6144 H   0  0  0  0  0  0  0  0  0  0  0  0
   21.6081  135.1739   -2.2835 H   0  0  0  0  0  0  0  0  0  0  0  0
   22.6371  132.9964   -2.6666 H   0  0  0  0  0  0  0  0  0  0  0  0
   21.5998  132.7367   -4.1099 H   0  0  0  0  0  0  0  0  0  0  0  0
   22.8266  134.0488   -4.1099 H   0  0  0  0  0  0  0  0  0  0  0  0
   19.7999  134.4912   -4.6587 H   0  0  0  0  0  0  0  0  0  0  0  0
   19.7543  135.9867   -3.6055 H   0  0  0  0  0  0  0  0  0  0  0  0
   22.0860  136.4779   -4.4078 H   0  0  0  0  0  0  0  0  0  0  0  0
   21.8538  135.1864   -5.6344 H   0  0  0  0  0  0  0  0  0  0  0  0
   20.7823  136.6281   -5.6344 H   0  0  0  0  0  0  0  0  0  0  0  0
   19.7998  131.9425   -3.1909 H   0  0  0  0  0  0  0  0  0  0  0  0
   18.4633  132.2587   -1.9760 H   0  0  0  0  0  0  0  0  0  0  0  0
   18.0483  131.2758   -4.4737 H   0  0  0  0  0  0  0  0  0  0  0  0
   15.6409  131.1671   -3.9897 H   0  0  0  0  0  0  0  0  0  0  0  0
   16.4459  131.8854   -2.5484 H   0  0  0  0  0  0  0  0  0  0  0  0
   13.9922  132.3406   -5.1488 H   0  0  0  0  0  0  0  0  0  0  0  0
   16.4913  134.4371   -2.3521 H   0  0  0  0  0  0  0  0  0  0  0  0
   12.5426  134.3460   -5.4007 H   0  0  0  0  0  0  0  0  0  0  0  0
   15.0754  136.4869   -2.6274 H   0  0  0  0  0  0  0  0  0  0  0  0
   13.0780  136.4431   -4.1673 H   0  0  0  0  0  0  0  0  0  0  0  0
   17.9634  134.5559   -5.4649 H   0  0  0  0  0  0  0  0  0  0  0  0
   17.2137  133.7432   -8.2125 H   0  0  0  0  0  0  0  0  0  0  0  0
   14.9574  134.0842   -7.2288 H   0  0  0  0  0  0  0  0  0  0  0  0
   15.4501  135.7401   -6.6983 H   0  0  0  0  0  0  0  0  0  0  0  0
   15.8701  136.3515   -9.0282 H   0  0  0  0  0  0  0  0  0  0  0  0
   15.2887  134.6773   -9.5135 H   0  0  0  0  0  0  0  0  0  0  0  0
   13.5738  138.1461   -9.9699 H   0  0  0  0  0  0  0  0  0  0  0  0
   14.4852  136.9070  -10.8976 H   0  0  0  0  0  0  0  0  0  0  0  0
   12.6890  136.8878  -10.8976 H   0  0  0  0  0  0  0  0  0  0  0  0
   18.7708  136.8308   -9.1252 H   0  0  0  0  0  0  0  0  0  0  0  0
  2  1  1  0
  5  3  1  0
  5  1  1  0
  5  4  1  0
  6  3  1  0
  7  6  1  0
  8  7  1  0
  9  8  1  0
 10  8  1  0
 11 10  1  0
 12  7  1  0
 13 12  1  0
 14 13  1  0
 15 14  1  0
 16 15  1  0
 17 16  2  0
 18 16  1  0
 19 17  1  0
 20 18  2  0
 21 20  1  0
 21 19  2  0
 22 14  1  0
 23 22  2  0
 24 22  1  0
 25 24  1  0
 26 25  1  0
 27 26  1  0
 28 27  1  0
 29 28  2  0
 30 28  2  0
 31 28  1  0
 32 25  1  0
 33 32  1  0
 34 32  2  0
  1 35  1  0
  1 36  1  0
  2 37  1  0
  3 38  1  0
  3 39  1  0
  4 40  1  0
  4 41  1  0
  5 42  1  6
  6 43  1  0
  7 44  1  1
  8 45  1  1
  9 46  1  0
  9 47  1  0
  9 48  1  0
 10 49  1  0
 10 50  1  0
 11 51  1  0
 11 52  1  0
 11 53  1  0
 12 54  1  0
 12 55  1  0
 14 56  1  0
 15 57  1  0
 15 58  1  0
 17 59  1  0
 18 60  1  0
 19 61  1  0
 20 62  1  0
 21 63  1  0
 24 64  1  0
 25 65  1  0
 26 66  1  0
 26 67  1  0
 27 68  1  0
 27 69  1  0
 31 70  1  0
 31 71  1  0
 31 72  1  0
 33 73  1  0
M  END
$$$$

     RDKit          3D

 54 59  0  0  0  0  0  0  0  0999 V2000
   15.5080  134.4320   -3.1820 C   0  0  0  0  0  0  0  0  0  0  0  0
   15.8130  135.8060   -2.9700 C   0  0  0  0  0  0  0  0  0  0  0  0
   14.3930  134.0550   -4.0250 C   0  0  0  0  0  0  0  0  0  0  0  0
   16.2640  133.4040   -2.6030 C   0  0  0  0  0  0  0  0  0  0  0  0
   16.9340  136.0720   -2.1200 N   0  0  0  0  0  0  0  0  0  0  0  0
   15.0060  136.8170   -3.6040 C   0  0  0  0  0  0  0  0  0  0  0  0
   14.0980  132.6740   -4.2240 C   0  0  0  0  0  0  0  0  0  0  0  0
   13.6070  135.0740   -4.6450 C   0  0  0  0  0  0  0  0  0  0  0  0
   15.9990  132.0400   -2.8040 C   0  0  0  0  0  0  0  0  0  0  0  0
   18.2260  136.5560   -2.6480 C   0  0  0  0  0  0  0  0  0  0  0  0
   16.9210  136.0440   -0.7170 C   0  0  0  0  0  0  0  0  0  0  0  0
   13.9150  136.4460   -4.4350 C   0  0  0  0  0  0  0  0  0  0  0  0
   14.8950  131.6650   -3.6120 C   0  0  0  0  0  0  0  0  0  0  0  0
   16.8820  131.0240   -2.3380 O   0  0  0  0  0  0  0  0  0  0  0  0
   18.9320  137.1870   -1.4390 C   0  0  0  0  0  0  0  0  0  0  0  0
   18.3430  136.2740   -0.3650 C   0  0  0  0  0  0  0  0  0  0  0  0
   18.2660  131.3910   -2.3760 C   0  0  0  0  0  0  0  0  0  0  0  0
   19.0040  131.6510   -3.5810 C   0  0  0  0  0  0  0  0  0  0  0  0
   18.9130  131.4970   -1.1250 C   0  0  0  0  0  0  0  0  0  0  0  0
   19.8740  134.8820    0.6050 C   0  0  0  0  0  0  0  0  0  0  0  0
   20.3710  132.0210   -3.4940 C   0  0  0  0  0  0  0  0  0  0  0  0
   18.3400  131.5250   -4.8580 C   0  0  0  0  0  0  0  0  0  0  0  0
   20.2920  131.8620   -1.0270 C   0  0  0  0  0  0  0  0  0  0  0  0
   19.6690  133.7580    1.5580 C   0  0  0  0  0  0  0  0  0  0  0  0
   21.0160  132.1300   -2.2250 C   0  0  0  0  0  0  0  0  0  0  0  0
   17.7410  131.4140   -5.8270 N   0  0  0  0  0  0  0  0  0  0  0  0
   21.0210  131.9740    0.3090 C   0  0  0  0  0  0  0  0  0  0  0  0
   20.1860  132.4880    1.4010 N   0  0  0  0  0  0  0  0  0  0  0  0
   18.9790  133.7000    2.7500 C   0  0  0  0  0  0  0  0  0  0  0  0
   19.7940  131.7540    2.4770 C   0  0  0  0  0  0  0  0  0  0  0  0
   19.0600  132.4680    3.3120 N   0  0  0  0  0  0  0  0  0  0  0  0
   16.0060  135.8950    0.0380 O   0  0  0  0  0  0  0  0  0  0  0  0
   18.9310  135.9420    0.8730 N   0  0  0  0  0  0  0  0  0  0  0  0
   17.1101  133.6804   -1.9566 H   0  0  0  0  0  0  0  0  0  0  0  0
   15.2355  137.8808   -3.4440 H   0  0  0  0  0  0  0  0  0  0  0  0
   13.2459  132.3852   -4.8569 H   0  0  0  0  0  0  0  0  0  0  0  0
   12.7591  134.7957   -5.2882 H   0  0  0  0  0  0  0  0  0  0  0  0
   18.8179  135.7204   -3.0498 H   0  0  0  0  0  0  0  0  0  0  0  0
   18.0955  137.2719   -3.4729 H   0  0  0  0  0  0  0  0  0  0  0  0
   13.3057  137.2240   -4.9182 H   0  0  0  0  0  0  0  0  0  0  0  0
   14.6562  130.6021   -3.7647 H   0  0  0  0  0  0  0  0  0  0  0  0
   20.0270  137.1050   -1.5038 H   0  0  0  0  0  0  0  0  0  0  0  0
   18.7822  138.2673   -1.2962 H   0  0  0  0  0  0  0  0  0  0  0  0
   18.9877  135.4207   -0.1075 H   0  0  0  0  0  0  0  0  0  0  0  0
   18.3435  131.2943   -0.2060 H   0  0  0  0  0  0  0  0  0  0  0  0
   20.8974  135.2698    0.7154 H   0  0  0  0  0  0  0  0  0  0  0  0
   19.7196  134.5154   -0.4206 H   0  0  0  0  0  0  0  0  0  0  0  0
   20.9394  132.2259   -4.4132 H   0  0  0  0  0  0  0  0  0  0  0  0
   22.0753  132.4218   -2.1717 H   0  0  0  0  0  0  0  0  0  0  0  0
   21.3829  130.9742    0.5909 H   0  0  0  0  0  0  0  0  0  0  0  0
   21.8395  132.6949    0.1666 H   0  0  0  0  0  0  0  0  0  0  0  0
   18.4315  134.5464    3.1902 H   0  0  0  0  0  0  0  0  0  0  0  0
   20.0556  130.6970    2.6327 H   0  0  0  0  0  0  0  0  0  0  0  0
   18.2105  135.6190    1.5344 H   0  0  0  0  0  0  0  0  0  0  0  0
  2  1  1  0
  3  1  1  0
  4  1  2  0
  5  2  1  0
  6  2  2  0
  7  3  2  0
  8  3  1  0
  9  4  1  0
 10  5  1  0
 11  5  1  0
 12  8  2  0
 12  6  1  0
 13  9  2  0
 13  7  1  0
 14  9  1  0
 15 10  1  0
 16 11  1  0
 16 15  1  0
 17 14  1  0
 18 17  2  0
 19 17  1  0
 21 18  1  0
 22 18  1  0
 23 19  2  0
 24 20  1  0
 25 23  1  0
 25 21  2  0
 26 22  3  0
 27 23  1  0
 28 27  1  0
 28 24  1  0
 29 24  2  0
 30 28  1  0
 31 30  2  0
 31 29  1  0
 32 11  2  0
 33 20  1  0
 33 16  1  0
  4 34  1  0
  6 35  1  0
  7 36  1  0
  8 37  1  0
 10 38  1  0
 10 39  1  0
 12 40  1  0
 13 41  1  0
 15 42  1  0
 15 43  1  0
 16 44  1  0
 19 45  1  0
 20 46  1  0
 20 47  1  0
 21 48  1  0
 25 49  1  0
 27 50  1  0
 27 51  1  0
 29 52  1  0
 30 53  1  0
 33 54  1  0
M  END
$$$$

     RDKit          3D

 68 71  0  0  0  0  0  0  0  0999 V2000
   14.7570  135.3880   -4.7350 C   0  0  1  0  0  0  0  0  0  0  0  0
   14.5730  133.8980   -4.1580 C   0  0  0  0  0  0  0  0  0  0  0  0
   16.2970  135.8070   -4.9940 C   0  0  0  0  0  0  0  0  0  0  0  0
   13.8510  135.4920   -6.0560 C   0  0  0  0  0  0  0  0  0  0  0  0
   14.1930  136.4620   -3.7090 C   0  0  0  0  0  0  0  0  0  0  0  0
   15.6940  133.1920   -3.6550 C   0  0  0  0  0  0  0  0  0  0  0  0
   13.3090  133.2050   -4.0920 C   0  0  0  0  0  0  0  0  0  0  0  0
   17.0760  135.1760   -6.0110 N   0  0  0  0  0  0  0  0  0  0  0  0
   16.8180  136.6990   -4.2910 O   0  0  0  0  0  0  0  0  0  0  0  0
   14.1160  134.5200   -7.2290 C   0  0  0  0  0  0  0  0  0  0  0  0
   14.5900  136.2910   -2.2270 C   0  0  0  0  0  0  0  0  0  0  0  0
   15.6220  131.8710   -3.1060 C   0  0  0  0  0  0  0  0  0  0  0  0
   13.2170  131.8830   -3.5510 C   0  0  0  0  0  0  0  0  0  0  0  0
   16.6310  134.1490   -6.9620 C   0  0  0  0  0  0  0  0  0  0  0  0
   18.4710  135.5850   -6.1910 C   0  0  0  0  0  0  0  0  0  0  0  0
   15.5040  134.6420   -7.8620 C   0  0  0  0  0  0  0  0  0  0  0  0
   16.8000  131.2320   -2.6210 O   0  0  0  0  0  0  0  0  0  0  0  0
   14.3710  131.2150   -3.0590 C   0  0  0  0  0  0  0  0  0  0  0  0
   17.9610  132.0320   -2.5240 C   0  0  0  0  0  0  0  0  0  0  0  0
   18.9260  132.1570   -3.5810 C   0  0  0  0  0  0  0  0  0  0  0  0
   18.1510  132.7520   -1.3110 C   0  0  0  0  0  0  0  0  0  0  0  0
   20.0580  132.9900   -3.3960 C   0  0  0  0  0  0  0  0  0  0  0  0
   18.7360  131.5360   -4.8570 C   0  0  0  0  0  0  0  0  0  0  0  0
   19.2830  133.6060   -1.1110 C   0  0  0  0  0  0  0  0  0  0  0  0
   20.2350  133.7050   -2.1830 C   0  0  0  0  0  0  0  0  0  0  0  0
   18.5220  131.0600   -5.8860 N   0  0  0  0  0  0  0  0  0  0  0  0
   19.4940  134.3960    0.2080 C   0  0  2  0  0  0  0  0  0  0  0  0
   19.4750  133.5140    1.4560 C   0  0  0  0  0  0  0  0  0  0  0  0
   18.4060  135.5080    0.3710 C   0  0  0  0  0  0  0  0  0  0  0  0
   20.8130  135.0350    0.1770 N   0  0  0  0  0  0  0  0  0  0  0  0
   20.2480  132.3840    1.6590 N   0  0  0  0  0  0  0  0  0  0  0  0
   18.7230  133.6030    2.6290 C   0  0  0  0  0  0  0  0  0  0  0  0
   19.9070  131.9070    2.8800 C   0  0  0  0  0  0  0  0  0  0  0  0
   21.2500  131.7180    0.8400 C   0  0  0  0  0  0  0  0  0  0  0  0
   18.9910  132.6020    3.5200 N   0  0  0  0  0  0  0  0  0  0  0  0
   12.8073  135.3414   -5.7429 H   0  0  0  0  0  0  0  0  0  0  0  0
   14.1042  136.4789   -6.4707 H   0  0  0  0  0  0  0  0  0  0  0  0
   14.5472  137.4509   -4.0355 H   0  0  0  0  0  0  0  0  0  0  0  0
   13.1010  136.3308   -3.7293 H   0  0  0  0  0  0  0  0  0  0  0  0
   16.6758  133.6869   -3.6881 H   0  0  0  0  0  0  0  0  0  0  0  0
   12.4005  133.7013   -4.4639 H   0  0  0  0  0  0  0  0  0  0  0  0
   13.9996  133.4922   -6.8548 H   0  0  0  0  0  0  0  0  0  0  0  0
   13.3927  134.7796   -8.0160 H   0  0  0  0  0  0  0  0  0  0  0  0
   13.7699  136.6442   -1.5846 H   0  0  0  0  0  0  0  0  0  0  0  0
   14.7862  135.2286   -2.0202 H   0  0  0  0  0  0  0  0  0  0  0  0
   15.4968  136.8783   -2.0202 H   0  0  0  0  0  0  0  0  0  0  0  0
   12.2406  131.3776   -3.5156 H   0  0  0  0  0  0  0  0  0  0  0  0
   17.4843  133.8568   -7.5918 H   0  0  0  0  0  0  0  0  0  0  0  0
   16.2489  133.2964   -6.3815 H   0  0  0  0  0  0  0  0  0  0  0  0
   18.9425  135.7232   -5.2068 H   0  0  0  0  0  0  0  0  0  0  0  0
   19.0117  134.8076   -6.7507 H   0  0  0  0  0  0  0  0  0  0  0  0
   18.5064  136.5313   -6.7507 H   0  0  0  0  0  0  0  0  0  0  0  0
   15.5162  134.0511   -8.7897 H   0  0  0  0  0  0  0  0  0  0  0  0
   15.6820  135.7120   -8.0448 H   0  0  0  0  0  0  0  0  0  0  0  0
   14.2914  130.1985   -2.6461 H   0  0  0  0  0  0  0  0  0  0  0  0
   17.4086  132.6497   -0.5058 H   0  0  0  0  0  0  0  0  0  0  0  0
   20.8046  133.0828   -4.1985 H   0  0  0  0  0  0  0  0  0  0  0  0
   21.1190  134.3482   -2.0608 H   0  0  0  0  0  0  0  0  0  0  0  0
   18.2265  135.6914    1.4407 H   0  0  0  0  0  0  0  0  0  0  0  0
   18.7552  136.4354   -0.1065 H   0  0  0  0  0  0  0  0  0  0  0  0
   17.4712  135.1792   -0.1065 H   0  0  0  0  0  0  0  0  0  0  0  0
   21.1404  135.1936    1.1406 H   0  0  0  0  0  0  0  0  0  0  0  0
   21.4793  134.4233   -0.3157 H   0  0  0  0  0  0  0  0  0  0  0  0
   17.9880  134.3995    2.8172 H   0  0  0  0  0  0  0  0  0  0  0  0
   20.3638  131.0019    3.3068 H   0  0  0  0  0  0  0  0  0  0  0  0
   21.9884  131.2272    1.4910 H   0  0  0  0  0  0  0  0  0  0  0  0
   20.7623  130.9637    0.2050 H   0  0  0  0  0  0  0  0  0  0  0  0
   21.7566  132.4597    0.2050 H   0  0  0  0  0  0  0  0  0  0  0  0
  2  1  1  0
  3  1  1  0
  4  1  1  0
  1  5  1  1
  6  2  2  0
  7  2  1  0
  8  3  1  0
  9  3  2  0
 10  4  1  0
 11  5  1  0
 12  6  1  0
 13  7  2  0
 14  8  1  0
 15  8  1  0
 16 10  1  0
 16 14  1  0
 17 12  1  0
 18 13  1  0
 18 12  2  0
 19 17  1  0
 20 19  2  0
 21 19  1  0
 22 20  1  0
 23 20  1  0
 24 21  2  0
 25 24  1  0
 25 22  2  0
 26 23  3  0
 27 24  1  0
 28 27  1  0
 29 27  1  0
 27 30  1  6
 31 28  1  0
 32 28  2  0
 33 31  1  0
 34 31  1  0
 35 33  2  0
 35 32  1  0
  4 36  1  0
  4 37  1  0
  5 38  1  0
  5 39  1  0
  6 40  1  0
  7 41  1  0
 10 42  1  0
 10 43  1  0
 11 44  1  0
 11 45  1  0
 11 46  1  0
 13 47  1  0
 14 48  1  0
 14 49  1  0
 15 50  1  0
 15 51  1  0
 15 52  1  0
 16 53  1  0
 16 54  1  0
 18 55  1  0
 21 56  1  0
 22 57  1  0
 25 58  1  0
 29 59  1  0
 29 60  1  0
 29 61  1  0
 30 62  1  0
 30 63  1  0
 32 64  1  0
 33 65  1  0
 34 66  1  0
 34 67  1  0
 34 68  1  0
M  END
$$$$

     RDKit          3D

 49 52  0  0  0  0  0  0  0  0999 V2000
   18.4320  135.1150   -0.0350 N   0  0  0  0  0  0  0  0  0  0  0  0
   17.1210  135.5320    0.4710 C   0  0  0  0  0  0  0  0  0  0  0  0
   19.6070  135.1200    0.8380 C   0  0  0  0  0  0  0  0  0  0  0  0
   18.8360  135.8220   -1.2570 C   0  0  0  0  0  0  0  0  0  0  0  0
   16.2120  134.9340   -0.6150 C   0  0  0  0  0  0  0  0  0  0  0  0
   19.4420  134.0240    1.8880 C   0  0  0  0  0  0  0  0  0  0  0  0
   17.7820  135.5960   -2.3830 C   0  0  0  0  0  0  0  0  0  0  0  0
   16.5010  135.1560   -2.0340 N   0  0  0  0  0  0  0  0  0  0  0  0
   19.9670  132.7720    1.7290 N   0  0  0  0  0  0  0  0  0  0  0  0
   18.7850  134.1200    3.0600 C   0  0  0  0  0  0  0  0  0  0  0  0
   18.0840  135.7970   -3.5440 O   0  0  0  0  0  0  0  0  0  0  0  0
   15.4930  134.9160   -2.9400 C   0  0  0  0  0  0  0  0  0  0  0  0
   20.7580  132.2490    0.5900 C   0  0  0  0  0  0  0  0  0  0  0  0
   19.6630  132.0420    2.7840 C   0  0  0  0  0  0  0  0  0  0  0  0
   18.9230  132.8240    3.6610 N   0  0  0  0  0  0  0  0  0  0  0  0
   14.9710  133.6320   -2.8910 C   0  0  0  0  0  0  0  0  0  0  0  0
   14.9640  135.8640   -3.8830 C   0  0  0  0  0  0  0  0  0  0  0  0
   19.9690  132.1420   -0.7240 C   0  0  0  0  0  0  0  0  0  0  0  0
   13.9390  133.2280   -3.7380 C   0  0  0  0  0  0  0  0  0  0  0  0
   13.9220  135.4610   -4.7490 C   0  0  0  0  0  0  0  0  0  0  0  0
   20.5530  132.5510   -1.9450 C   0  0  0  0  0  0  0  0  0  0  0  0
   18.6610  131.6390   -0.7500 C   0  0  0  0  0  0  0  0  0  0  0  0
   13.4090  134.1410   -4.6740 C   0  0  0  0  0  0  0  0  0  0  0  0
   13.3610  131.6100   -3.5780 Cl  0  0  0  0  0  0  0  0  0  0  0  0
   19.8420  132.4490   -3.1630 C   0  0  0  0  0  0  0  0  0  0  0  0
   17.9560  131.5380   -1.9540 C   0  0  0  0  0  0  0  0  0  0  0  0
   18.5540  131.9450   -3.1690 C   0  0  0  0  0  0  0  0  0  0  0  0
   17.8840  131.8350   -4.3120 C   0  0  0  0  0  0  0  0  0  0  0  0
   17.2960  131.7350   -5.3200 N   0  0  0  0  0  0  0  0  0  0  0  0
   16.9104  135.1024    1.4615 H   0  0  0  0  0  0  0  0  0  0  0  0
   17.0074  136.6152    0.6249 H   0  0  0  0  0  0  0  0  0  0  0  0
   20.5116  134.9284    0.2421 H   0  0  0  0  0  0  0  0  0  0  0  0
   19.7037  136.0989    1.3303 H   0  0  0  0  0  0  0  0  0  0  0  0
   18.9157  136.8983   -1.0446 H   0  0  0  0  0  0  0  0  0  0  0  0
   19.8085  135.4324   -1.5922 H   0  0  0  0  0  0  0  0  0  0  0  0
   16.2115  133.8449   -0.4605 H   0  0  0  0  0  0  0  0  0  0  0  0
   15.2650  135.4742   -0.4688 H   0  0  0  0  0  0  0  0  0  0  0  0
   18.2595  134.9968    3.4662 H   0  0  0  0  0  0  0  0  0  0  0  0
   21.6133  132.9209    0.4258 H   0  0  0  0  0  0  0  0  0  0  0  0
   21.0660  131.2280    0.8595 H   0  0  0  0  0  0  0  0  0  0  0  0
   19.9474  130.9913    2.9426 H   0  0  0  0  0  0  0  0  0  0  0  0
   15.3813  132.9139   -2.1657 H   0  0  0  0  0  0  0  0  0  0  0  0
   15.3642  136.8875   -3.9298 H   0  0  0  0  0  0  0  0  0  0  0  0
   13.5092  136.1710   -5.4808 H   0  0  0  0  0  0  0  0  0  0  0  0
   21.5762  132.9548   -1.9474 H   0  0  0  0  0  0  0  0  0  0  0  0
   18.1830  131.3197    0.1879 H   0  0  0  0  0  0  0  0  0  0  0  0
   12.5966  133.8285   -5.3466 H   0  0  0  0  0  0  0  0  0  0  0  0
   20.3124  132.7699   -4.1041 H   0  0  0  0  0  0  0  0  0  0  0  0
   16.9306  131.1397   -1.9556 H   0  0  0  0  0  0  0  0  0  0  0  0
  2  1  1  0
  3  1  1  0
  4  1  1  0
  5  2  1  0
  6  3  1  0
  7  4  1  0
  8  5  1  0
  8  7  1  0
  9  6  1  0
 10  6  2  0
 11  7  2  0
 12  8  1  0
 13  9  1  0
 14  9  1  0
 15 14  2  0
 15 10  1  0
 16 12  2  0
 17 12  1  0
 18 13  1  0
 19 16  1  0
 20 17  2  0
 21 18  2  0
 22 18  1  0
 23 20  1  0
 23 19  2  0
 24 19  1  0
 25 21  1  0
 26 22  2  0
 27 26  1  0
 27 25  2  0
 28 27  1  0
 29 28  3  0
  2 30  1  0
  2 31  1  0
  3 32  1  0
  3 33  1  0
  4 34  1  0
  4 35  1  0
  5 36  1  0
  5 37  1  0
 10 38  1  0
 13 39  1  0
 13 40  1  0
 14 41  1  0
 16 42  1  0
 17 43  1  0
 20 44  1  0
 21 45  1  0
 22 46  1  0
 23 47  1  0
 25 48  1  0
 26 49  1  0
M  END
$$$$

     RDKit          3D

 56 60  0  0  0  0  0  0  0  0999 V2000
   21.2860  132.0940    0.4330 C   0  0  0  0  0  0  0  0  0  0  0  0
   20.2220  132.4530    1.4050 N   0  0  0  0  0  0  0  0  0  0  0  0
   19.9850  131.8190    2.5520 C   0  0  0  0  0  0  0  0  0  0  0  0
   18.9270  132.4360    3.1430 N   0  0  0  0  0  0  0  0  0  0  0  0
   18.5140  133.4510    2.3550 C   0  0  0  0  0  0  0  0  0  0  0  0
   19.3320  133.4230    1.3110 C   0  0  0  0  0  0  0  0  0  0  0  0
   19.1990  134.2940    0.1600 C   0  0  2  0  0  0  0  0  0  0  0  0
   18.9240  133.5700   -1.0450 C   0  0  0  0  0  0  0  0  0  0  0  0
   17.9270  132.5610   -1.0540 C   0  0  0  0  0  0  0  0  0  0  0  0
   17.6060  131.8830   -2.2380 C   0  0  0  0  0  0  0  0  0  0  0  0
   18.2690  132.1960   -3.4320 C   0  0  0  0  0  0  0  0  0  0  0  0
   17.8120  131.3550   -4.9320 Cl  0  0  0  0  0  0  0  0  0  0  0  0
   19.2670  133.1930   -3.4460 C   0  0  0  0  0  0  0  0  0  0  0  0
   19.5960  133.8790   -2.2550 C   0  0  0  0  0  0  0  0  0  0  0  0
   20.5380  134.8920   -0.0150 N   0  0  0  0  0  0  0  0  0  0  0  0
   18.3420  135.4380    0.3680 C   0  0  0  0  0  0  0  0  0  0  0  0
   17.1720  135.6440   -0.4200 C   0  0  0  0  0  0  0  0  0  0  0  0
   16.2220  136.6460   -0.0780 C   0  0  0  0  0  0  0  0  0  0  0  0
   18.5610  136.2810    1.4870 C   0  0  0  0  0  0  0  0  0  0  0  0
   17.6290  137.2710    1.8330 C   0  0  0  0  0  0  0  0  0  0  0  0
   16.4550  137.4550    1.0700 C   0  0  0  0  0  0  0  0  0  0  0  0
   15.4670  138.4080    1.4780 N   0  0  0  0  0  0  0  0  0  0  0  0
   15.6880  139.2770    2.6700 C   0  0  0  0  0  0  0  0  0  0  0  0
   14.2660  138.5400    0.7460 C   0  0  0  0  0  0  0  0  0  0  0  0
   13.3940  139.3240    1.1240 O   0  0  0  0  0  0  0  0  0  0  0  0
   14.0490  137.7560   -0.3910 C   0  0  0  0  0  0  0  0  0  0  0  0
   15.0110  136.8170   -0.8250 C   0  0  0  0  0  0  0  0  0  0  0  0
   14.7750  136.1460   -2.0530 C   0  0  0  0  0  0  0  0  0  0  0  0
   14.6990  134.7350   -2.1220 C   0  0  0  0  0  0  0  0  0  0  0  0
   14.4070  134.1070   -3.3520 C   0  0  0  0  0  0  0  0  0  0  0  0
   14.2840  132.3440   -3.4440 Cl  0  0  0  0  0  0  0  0  0  0  0  0
   14.1930  134.8730   -4.5130 C   0  0  0  0  0  0  0  0  0  0  0  0
   14.2680  136.2730   -4.4510 C   0  0  0  0  0  0  0  0  0  0  0  0
   14.5570  136.9060   -3.2290 C   0  0  0  0  0  0  0  0  0  0  0  0
   22.1918  131.7884    0.9772 H   0  0  0  0  0  0  0  0  0  0  0  0
   20.9400  131.2629   -0.1990 H   0  0  0  0  0  0  0  0  0  0  0  0
   21.5143  132.9649   -0.1990 H   0  0  0  0  0  0  0  0  0  0  0  0
   20.5416  130.9566    2.9477 H   0  0  0  0  0  0  0  0  0  0  0  0
   17.6826  134.1477    2.5381 H   0  0  0  0  0  0  0  0  0  0  0  0
   17.4003  132.3080   -0.1220 H   0  0  0  0  0  0  0  0  0  0  0  0
   16.8309  131.1025   -2.2298 H   0  0  0  0  0  0  0  0  0  0  0  0
   19.7888  133.4363   -4.3833 H   0  0  0  0  0  0  0  0  0  0  0  0
   20.3756  134.6549   -2.2666 H   0  0  0  0  0  0  0  0  0  0  0  0
   20.9543  135.0779    0.9086 H   0  0  0  0  0  0  0  0  0  0  0  0
   21.1397  134.2397   -0.5378 H   0  0  0  0  0  0  0  0  0  0  0  0
   17.0009  135.0174   -1.3077 H   0  0  0  0  0  0  0  0  0  0  0  0
   19.4721  136.1573    2.0908 H   0  0  0  0  0  0  0  0  0  0  0  0
   17.8148  137.9109    2.7082 H   0  0  0  0  0  0  0  0  0  0  0  0
   15.5381  138.6874    3.5865 H   0  0  0  0  0  0  0  0  0  0  0  0
   16.7149  139.6709    2.6513 H   0  0  0  0  0  0  0  0  0  0  0  0
   14.9740  140.1136    2.6513 H   0  0  0  0  0  0  0  0  0  0  0  0
   13.1132  137.8723   -0.9573 H   0  0  0  0  0  0  0  0  0  0  0  0
   14.8670  134.1289   -1.2196 H   0  0  0  0  0  0  0  0  0  0  0  0
   13.9673  134.3752   -5.4676 H   0  0  0  0  0  0  0  0  0  0  0  0
   14.1010  136.8743   -5.3569 H   0  0  0  0  0  0  0  0  0  0  0  0
   14.6145  138.0036   -3.1855 H   0  0  0  0  0  0  0  0  0  0  0  0
  2  1  1  0
  3  2  1  0
  4  3  2  0
  5  4  1  0
  6  5  2  0
  6  2  1  0
  7  6  1  0
  8  7  1  0
  9  8  2  0
 10  9  1  0
 11 10  2  0
 12 11  1  0
 13 11  1  0
 14 13  2  0
 14  8  1  0
  7 15  1  6
 16  7  1  0
 17 16  2  0
 18 17  1  0
 19 16  1  0
 20 19  2  0
 21 18  2  0
 21 20  1  0
 22 21  1  0
 23 22  1  0
 24 22  1  0
 25 24  2  0
 26 24  1  0
 27 26  2  0
 27 18  1  0
 28 27  1  0
 29 28  2  0
 30 29  1  0
 31 30  1  0
 32 30  2  0
 33 32  1  0
 34 28  1  0
 34 33  2  0
  1 35  1  0
  1 36  1  0
  1 37  1  0
  3 38  1  0
  5 39  1  0
  9 40  1  0
 10 41  1  0
 13 42  1  0
 14 43  1  0
 15 44  1  0
 15 45  1  0
 17 46  1  0
 19 47  1  0
 20 48  1  0
 23 49  1  0
 23 50  1  0
 23 51  1  0
 26 52  1  0
 29 53  1  0
 32 54  1  0
 33 55  1  0
 34 56  1  0
M  END
$$$$

     RDKit          3D

 68 72  0  0  0  0  0  0  0  0999 V2000
   21.6680  136.0490   -5.1020 C   0  0  0  0  0  0  0  0  0  0  0  0
   20.7200  135.0290   -4.5350 N   0  0  0  0  0  0  0  0  0  0  0  0
   19.4330  134.9980   -4.8470 C   0  0  0  0  0  0  0  0  0  0  0  0
   21.0030  134.0480   -3.6670 C   0  0  0  0  0  0  0  0  0  0  0  0
   19.8680  133.3680   -3.4240 N   0  0  0  0  0  0  0  0  0  0  0  0
   18.9360  133.9800   -4.1460 C   0  0  0  0  0  0  0  0  0  0  0  0
   17.2780  133.5450   -4.2420 S   0  0  0  0  0  6  0  0  0  0  0  0
   17.1650  132.1890   -4.8920 O   0  0  0  0  0  0  0  0  0  0  0  0
   16.5450  134.5910   -5.0530 O   0  0  0  0  0  0  0  0  0  0  0  0
   16.4940  133.5380   -2.8050 N   0  0  0  0  0  0  0  0  0  0  0  0
   16.2240  132.1650   -2.3300 C   0  0  0  0  0  0  0  0  0  0  0  0
   14.7900  131.9480   -2.8440 C   0  0  0  0  0  0  0  0  0  0  0  0
   14.1800  132.8840   -3.3720 O   0  0  0  0  0  0  0  0  0  0  0  0
   14.2170  130.7310   -2.7370 O   0  0  0  0  0  0  0  0  0  0  0  0
   12.8300  130.5970   -3.0610 C   0  0  0  0  0  0  0  0  0  0  0  0
   16.8480  134.5920   -1.8470 C   0  0  2  0  0  0  0  0  0  0  0  0
   17.7580  134.1560   -0.7040 C   0  0  0  0  0  0  0  0  0  0  0  0
   15.4910  135.1220   -1.3060 C   0  0  0  0  0  0  0  0  0  0  0  0
   15.6450  136.0570   -0.1100 C   0  0  0  0  0  0  0  0  0  0  0  0
   14.5750  136.9140    0.1970 C   0  0  0  0  0  0  0  0  0  0  0  0
   14.6320  137.7780    1.3160 C   0  0  0  0  0  0  0  0  0  0  0  0
   13.5610  138.6700    1.6080 C   0  0  0  0  0  0  0  0  0  0  0  0
   12.2270  138.3950    1.2860 C   0  0  0  0  0  0  0  0  0  0  0  0
   11.2030  139.3280    1.5550 C   0  0  0  0  0  0  0  0  0  0  0  0
   11.5210  140.5710    2.1270 C   0  0  0  0  0  0  0  0  0  0  0  0
   12.8490  140.8730    2.4230 C   0  0  0  0  0  0  0  0  0  0  0  0
   13.8580  139.9330    2.1620 C   0  0  0  0  0  0  0  0  0  0  0  0
   15.8110  137.7960    2.0700 C   0  0  0  0  0  0  0  0  0  0  0  0
   16.8890  136.9600    1.7470 C   0  0  0  0  0  0  0  0  0  0  0  0
   16.8140  136.0930    0.6430 C   0  0  0  0  0  0  0  0  0  0  0  0
   17.9050  135.2410    0.2800 N   0  0  0  0  0  0  0  0  0  0  0  0
   19.2340  135.4250    0.9030 C   0  0  0  0  0  0  0  0  0  0  0  0
   19.3580  134.4620    2.0960 C   0  0  0  0  0  0  0  0  0  0  0  0
   18.3710  133.7410    2.6590 C   0  0  0  0  0  0  0  0  0  0  0  0
   18.8820  133.0310    3.6630 N   0  0  0  0  0  0  0  0  0  0  0  0
   20.1920  133.3120    3.7490 C   0  0  0  0  0  0  0  0  0  0  0  0
   20.4680  134.1840    2.7800 N   0  0  0  0  0  0  0  0  0  0  0  0
   21.8450  134.7490    2.5010 C   0  0  0  0  0  0  0  0  0  0  0  0
   22.1654  136.5842   -4.2798 H   0  0  0  0  0  0  0  0  0  0  0  0
   22.4239  135.5431   -5.7205 H   0  0  0  0  0  0  0  0  0  0  0  0
   21.1082  136.7660   -5.7205 H   0  0  0  0  0  0  0  0  0  0  0  0
   18.8931  135.6662   -5.5341 H   0  0  0  0  0  0  0  0  0  0  0  0
   21.9900  133.8360   -3.2300 H   0  0  0  0  0  0  0  0  0  0  0  0
   16.9244  131.4407   -2.7713 H   0  0  0  0  0  0  0  0  0  0  0  0
   16.3396  132.0318   -1.2442 H   0  0  0  0  0  0  0  0  0  0  0  0
   12.2407  130.5401   -2.1339 H   0  0  0  0  0  0  0  0  0  0  0  0
   12.5050  131.4679   -3.6491 H   0  0  0  0  0  0  0  0  0  0  0  0
   12.6778  129.6800   -3.6491 H   0  0  0  0  0  0  0  0  0  0  0  0
   17.4463  135.3584   -2.3614 H   0  0  0  0  0  0  0  0  0  0  0  0
   17.3218  133.2755   -0.2096 H   0  0  0  0  0  0  0  0  0  0  0  0
   18.7491  133.9092   -1.1124 H   0  0  0  0  0  0  0  0  0  0  0  0
   14.9819  135.6683   -2.1137 H   0  0  0  0  0  0  0  0  0  0  0  0
   14.9112  134.2507   -0.9674 H   0  0  0  0  0  0  0  0  0  0  0  0
   13.6796  136.9133   -0.4420 H   0  0  0  0  0  0  0  0  0  0  0  0
   11.9722  137.4343    0.8147 H   0  0  0  0  0  0  0  0  0  0  0  0
   10.1575  139.0823    1.3172 H   0  0  0  0  0  0  0  0  0  0  0  0
   10.7267  141.3015    2.3400 H   0  0  0  0  0  0  0  0  0  0  0  0
   13.1064  141.8485    2.8614 H   0  0  0  0  0  0  0  0  0  0  0  0
   14.9029  140.1865    2.3944 H   0  0  0  0  0  0  0  0  0  0  0  0
   15.8931  138.4771    2.9299 H   0  0  0  0  0  0  0  0  0  0  0  0
   17.8006  136.9826    2.3622 H   0  0  0  0  0  0  0  0  0  0  0  0
   20.0213  135.2054    0.1669 H   0  0  0  0  0  0  0  0  0  0  0  0
   19.3456  136.4638    1.2472 H   0  0  0  0  0  0  0  0  0  0  0  0
   17.3175  133.7386    2.3425 H   0  0  0  0  0  0  0  0  0  0  0  0
   20.9028  132.9004    4.4807 H   0  0  0  0  0  0  0  0  0  0  0  0
   22.3552  134.9583    3.4528 H   0  0  0  0  0  0  0  0  0  0  0  0
   22.4310  134.0186    1.9238 H   0  0  0  0  0  0  0  0  0  0  0  0
   21.7491  135.6805    1.9238 H   0  0  0  0  0  0  0  0  0  0  0  0
  2  1  1  0
  3  2  1  0
  4  2  1  0
  5  4  2  0
  6  5  1  0
  6  3  2  0
  7  6  1  0
  8  7  2  0
  9  7  2  0
 10  7  1  0
 11 10  1  0
 12 11  1  0
 13 12  2  0
 14 12  1  0
 15 14  1  0
 16 10  1  0
 17 16  1  0
 18 16  1  0
 19 18  1  0
 20 19  1  0
 21 20  2  0
 22 21  1  0
 23 22  2  0
 24 23  1  0
 25 24  2  0
 26 25  1  0
 27 26  2  0
 27 22  1  0
 28 21  1  0
 29 28  2  0
 30 19  2  0
 30 29  1  0
 31 30  1  0
 31 17  1  0
 32 31  1  0
 33 32  1  0
 34 33  2  0
 35 34  1  0
 36 35  2  0
 37 36  1  0
 37 33  1  0
 38 37  1  0
  1 39  1  0
  1 40  1  0
  1 41  1  0
  3 42  1  0
  4 43  1  0
 11 44  1  0
 11 45  1  0
 15 46  1  0
 15 47  1  0
 15 48  1  0
 16 49  1  6
 17 50  1  0
 17 51  1  0
 18 52  1  0
 18 53  1  0
 20 54  1  0
 23 55  1  0
 24 56  1  0
 25 57  1  0
 26 58  1  0
 27 59  1  0
 28 60  1  0
 29 61  1  0
 32 62  1  0
 32 63  1  0
 34 64  1  0
 36 65  1  0
 38 66  1  0
 38 67  1  0
 38 68  1  0
M  END
$$$$

     RDKit          3D

 85 88  0  0  0  0  0  0  0  0999 V2000
   13.9080  130.4610   -6.9220 O   0  0  0  0  0  0  0  0  0  0  0  0
   13.9980  130.2310   -5.7180 C   0  0  0  0  0  0  0  0  0  0  0  0
   13.7400  128.8960   -5.2610 O   0  0  0  0  0  0  0  0  0  0  0  0
   13.5330  127.7790   -6.1210 C   0  0  0  0  0  0  0  0  0  0  0  0
   12.2570  127.8920   -6.9400 C   0  0  0  0  0  0  0  0  0  0  0  0
   14.6980  127.7290   -7.0820 C   0  0  0  0  0  0  0  0  0  0  0  0
   13.4300  126.5540   -5.2250 C   0  0  0  0  0  0  0  0  0  0  0  0
   14.2820  131.0980   -4.8370 N   0  0  0  0  0  0  0  0  0  0  0  0
   14.5330  132.4940   -5.1490 C   0  0  0  0  0  0  0  0  0  0  0  0
   16.0040  132.7390   -4.8740 C   0  0  0  0  0  0  0  0  0  0  0  0
   14.4030  130.7740   -3.4160 C   0  0  0  0  0  0  0  0  0  0  0  0
   15.9110  130.8880   -3.1540 C   0  0  0  0  0  0  0  0  0  0  0  0
   16.4510  132.2860   -3.4910 C   0  0  0  0  0  0  0  0  0  0  0  0
   17.9690  132.2730   -3.6330 C   0  0  0  0  0  0  0  0  0  0  0  0
   18.7900  132.4480   -2.4190 N   0  0  0  0  0  0  0  0  0  0  0  0
   19.8020  131.1660   -2.2160 S   0  0  0  0  0  6  0  0  0  0  0  0
   20.1670  130.9950   -0.7820 O   0  0  0  0  0  0  0  0  0  0  0  0
   21.0020  131.5640   -3.0000 O   0  0  0  0  0  0  0  0  0  0  0  0
   19.2750  129.7660   -2.8470 C   0  0  0  0  0  0  0  0  0  0  0  0
   19.6570  129.4400   -4.1500 C   0  0  0  0  0  0  0  0  0  0  0  0
   19.2260  128.2630   -4.7520 C   0  0  0  0  0  0  0  0  0  0  0  0
   18.4090  127.3850   -4.0540 C   0  0  0  0  0  0  0  0  0  0  0  0
   18.0340  127.6970   -2.7540 C   0  0  0  0  0  0  0  0  0  0  0  0
   18.4750  128.8670   -2.1500 C   0  0  0  0  0  0  0  0  0  0  0  0
   18.0480  129.1550   -0.7420 C   0  0  0  0  0  0  0  0  0  0  0  0
   18.1500  133.0420   -1.2030 C   0  0  0  0  0  0  0  0  0  0  0  0
   18.5840  134.5190   -1.0960 C   0  0  0  0  0  0  0  0  0  0  0  0
   18.3270  135.0170    0.2730 N   0  0  0  0  0  0  0  0  0  0  0  0
   17.1910  135.8330    0.4710 C   0  0  0  0  0  0  0  0  0  0  0  0
   17.0730  136.5900    1.6380 C   0  0  0  0  0  0  0  0  0  0  0  0
   15.9340  137.3570    1.8680 C   0  0  0  0  0  0  0  0  0  0  0  0
   16.1390  135.8140   -0.4470 C   0  0  0  0  0  0  0  0  0  0  0  0
   15.0060  136.5860   -0.2190 C   0  0  0  0  0  0  0  0  0  0  0  0
   14.9010  137.3590    0.9290 C   0  0  0  0  0  0  0  0  0  0  0  0
   13.8270  138.0490    1.1230 C   0  0  0  0  0  0  0  0  0  0  0  0
   12.8330  138.6350    1.2850 N   0  0  0  0  0  0  0  0  0  0  0  0
   19.4650  135.3620    1.0720 C   0  0  0  0  0  0  0  0  0  0  0  0
   19.5590  134.5670    2.3380 C   0  0  0  0  0  0  0  0  0  0  0  0
   18.6140  133.6080    2.6580 C   0  0  0  0  0  0  0  0  0  0  0  0
   19.0530  133.1410    3.8520 N   0  0  0  0  0  0  0  0  0  0  0  0
   20.2030  133.7830    4.2130 C   0  0  0  0  0  0  0  0  0  0  0  0
   20.5180  134.6800    3.2630 N   0  0  0  0  0  0  0  0  0  0  0  0
   21.6930  135.5910    3.2630 C   0  0  0  0  0  0  0  0  0  0  0  0
   11.3928  127.9685   -6.2637 H   0  0  0  0  0  0  0  0  0  0  0  0
   12.3067  128.7893   -7.5744 H   0  0  0  0  0  0  0  0  0  0  0  0
   12.1483  127.0000   -7.5744 H   0  0  0  0  0  0  0  0  0  0  0  0
   15.6397  127.6886   -6.5149 H   0  0  0  0  0  0  0  0  0  0  0  0
   14.6127  126.8337   -7.7154 H   0  0  0  0  0  0  0  0  0  0  0  0
   14.6897  128.6283   -7.7154 H   0  0  0  0  0  0  0  0  0  0  0  0
   13.4564  126.8674   -4.1709 H   0  0  0  0  0  0  0  0  0  0  0  0
   12.4846  126.0296   -5.4281 H   0  0  0  0  0  0  0  0  0  0  0  0
   14.2746  125.8791   -5.4281 H   0  0  0  0  0  0  0  0  0  0  0  0
   14.3057  132.6938   -6.2065 H   0  0  0  0  0  0  0  0  0  0  0  0
   13.8991  133.1574   -4.5423 H   0  0  0  0  0  0  0  0  0  0  0  0
   16.5935  132.1935   -5.6256 H   0  0  0  0  0  0  0  0  0  0  0  0
   16.1640  133.8262   -4.9238 H   0  0  0  0  0  0  0  0  0  0  0  0
   13.8408  131.4907   -2.7993 H   0  0  0  0  0  0  0  0  0  0  0  0
   13.9965  129.7832   -3.1647 H   0  0  0  0  0  0  0  0  0  0  0  0
   16.1032  130.6801   -2.0911 H   0  0  0  0  0  0  0  0  0  0  0  0
   16.4236  130.1613   -3.8014 H   0  0  0  0  0  0  0  0  0  0  0  0
   16.0868  132.9314   -2.6781 H   0  0  0  0  0  0  0  0  0  0  0  0
   18.2457  131.3048   -4.0757 H   0  0  0  0  0  0  0  0  0  0  0  0
   18.1910  133.1633   -4.2397 H   0  0  0  0  0  0  0  0  0  0  0  0
   20.3099  130.1259   -4.7096 H   0  0  0  0  0  0  0  0  0  0  0  0
   19.5328  128.0278   -5.7818 H   0  0  0  0  0  0  0  0  0  0  0  0
   18.0626  126.4532   -4.5249 H   0  0  0  0  0  0  0  0  0  0  0  0
   17.3805  127.0099   -2.1965 H   0  0  0  0  0  0  0  0  0  0  0  0
   18.7510  128.6808   -0.0414 H   0  0  0  0  0  0  0  0  0  0  0  0
   18.0421  130.2424   -0.5758 H   0  0  0  0  0  0  0  0  0  0  0  0
   17.0376  128.7531   -0.5758 H   0  0  0  0  0  0  0  0  0  0  0  0
   17.0553  132.9821   -1.2926 H   0  0  0  0  0  0  0  0  0  0  0  0
   18.4623  132.4904   -0.3040 H   0  0  0  0  0  0  0  0  0  0  0  0
   19.6579  134.6015   -1.3194 H   0  0  0  0  0  0  0  0  0  0  0  0
   18.0093  135.1203   -1.8159 H   0  0  0  0  0  0  0  0  0  0  0  0
   17.8848  136.5805    2.3803 H   0  0  0  0  0  0  0  0  0  0  0  0
   15.8485  137.9584    2.7851 H   0  0  0  0  0  0  0  0  0  0  0  0
   16.2069  135.1888   -1.3495 H   0  0  0  0  0  0  0  0  0  0  0  0
   14.1870  136.5844   -0.9533 H   0  0  0  0  0  0  0  0  0  0  0  0
   20.3748  135.1852    0.4796 H   0  0  0  0  0  0  0  0  0  0  0  0
   19.3567  136.4190    1.3566 H   0  0  0  0  0  0  0  0  0  0  0  0
   17.7265  133.3009    2.0852 H   0  0  0  0  0  0  0  0  0  0  0  0
   20.7780  133.5963    5.1320 H   0  0  0  0  0  0  0  0  0  0  0  0
   21.9828  135.8157    4.3001 H   0  0  0  0  0  0  0  0  0  0  0  0
   22.5331  135.1059    2.7445 H   0  0  0  0  0  0  0  0  0  0  0  0
   21.4325  136.5255    2.7445 H   0  0  0  0  0  0  0  0  0  0  0  0
  2  1  2  0
  3  2  1  0
  4  3  1  0
  5  4  1  0
  6  4  1  0
  7  4  1  0
  8  2  1  0
  9  8  1  0
 10  9  1  0
 11  8  1  0
 12 11  1  0
 13 12  1  0
 13 10  1  0
 14 13  1  0
 15 14  1  0
 16 15  1  0
 17 16  2  0
 18 16  2  0
 19 16  1  0
 20 19  2  0
 21 20  1  0
 22 21  2  0
 23 22  1  0
 24 23  2  0
 24 19  1  0
 25 24  1  0
 26 15  1  0
 27 26  1  0
 28 27  1  0
 29 28  1  0
 30 29  2  0
 31 30  1  0
 32 29  1  0
 33 32  2  0
 34 33  1  0
 34 31  2  0
 35 34  1  0
 36 35  3  0
 37 28  1  0
 38 37  1  0
 39 38  2  0
 40 39  1  0
 41 40  2  0
 42 41  1  0
 42 38  1  0
 43 42  1  0
  5 44  1  0
  5 45  1  0
  5 46  1  0
  6 47  1  0
  6 48  1  0
  6 49  1  0
  7 50  1  0
  7 51  1  0
  7 52  1  0
  9 53  1  0
  9 54  1  0
 10 55  1  0
 10 56  1  0
 11 57  1  0
 11 58  1  0
 12 59  1  0
 12 60  1  0
 13 61  1  0
 14 62  1  0
 14 63  1  0
 20 64  1  0
 21 65  1  0
 22 66  1  0
 23 67  1  0
 25 68  1  0
 25 69  1  0
 25 70  1  0
 26 71  1  0
 26 72  1  0
 27 73  1  0
 27 74  1  0
 30 75  1  0
 31 76  1  0
 32 77  1  0
 33 78  1  0
 37 79  1  0
 37 80  1  0
 39 81  1  0
 41 82  1  0
 43 83  1  0
 43 84  1  0
 43 85  1  0
M  END
$$$$
